<?xml version="1.0" encoding="UTF-8"?>

<!-- generated on 2025-07-15 19:09:11 by Eclipse SUMO netedit Version 1.22.0
<neteditConfiguration xmlns:xsi="http://www.w3.org/2001/XMLSchema-instance" xsi:noNamespaceSchemaLocation="http://sumo.dlr.de/xsd/neteditConfiguration.xsd">

    <input>
        <sumocfg-file value="C:\Users\USUARIO(A)\Documents\GitHub\adaptative-traffic-lights\SUMO Config murilopolis.sumocfg"/>
        <sumo-net-file value="C:\Users\USUARIO(A)\Documents\GitHub\adaptative-traffic-lights\SUMO Network murilopolis.net.xml"/>
    </input>

    <output>
        <output-file value="C:\Users\USUARIO(A)\Documents\GitHub\adaptative-traffic-lights\SUMO Network murilopolis.net.xml"/>
    </output>

    <processing>
        <geometry.min-radius.fix.railways value="false"/>
        <geometry.max-grade.fix value="false"/>
        <offset.disable-normalization value="true"/>
        <lefthand value="0"/>
    </processing>

    <junctions>
        <no-turnarounds value="true"/>
        <junctions.corner-detail value="5"/>
        <junctions.limit-turn-speed value="5.50"/>
        <rectangular-lane-cut value="0"/>
    </junctions>

    <pedestrian>
        <walkingareas value="0"/>
    </pedestrian>

</neteditConfiguration>
-->

<net version="1.20" junctionCornerDetail="5" limitTurnSpeed="5.50" xmlns:xsi="http://www.w3.org/2001/XMLSchema-instance" xsi:noNamespaceSchemaLocation="http://sumo.dlr.de/xsd/net_file.xsd">

    <location netOffset="0.00,0.00" convBoundary="200356.72,-1064887.06,203811.30,-1062990.35" origBoundary="-35.729942,-9.623335,-35.698450,-9.603421" projParameter="+proj=utm +zone=25 +ellps=WGS84 +datum=WGS84 +units=m +no_defs"/>

    <type id="highway.footway" priority="1" numLanes="1" speed="2.78" allow="pedestrian" oneway="1" width="2.00"/>
    <type id="highway.primary" priority="12" numLanes="2" speed="27.78" disallow="tram rail_urban rail rail_electric rail_fast ship container cable_car subway aircraft wheelchair scooter drone" oneway="0"/>
    <type id="highway.primary_link" priority="7" numLanes="1" speed="22.22" disallow="tram rail_urban rail rail_electric rail_fast ship container cable_car subway aircraft wheelchair scooter drone" oneway="0"/>
    <type id="highway.residential" priority="3" numLanes="1" speed="13.89" disallow="tram rail_urban rail rail_electric rail_fast ship container cable_car subway aircraft wheelchair scooter drone" oneway="0"/>
    <type id="highway.secondary" priority="11" numLanes="1" speed="27.78" disallow="tram rail_urban rail rail_electric rail_fast ship container cable_car subway aircraft wheelchair scooter drone" oneway="0"/>
    <type id="highway.secondary_link" priority="6" numLanes="1" speed="22.22" disallow="tram rail_urban rail rail_electric rail_fast ship container cable_car subway aircraft wheelchair scooter drone" oneway="0"/>
    <type id="highway.service" priority="1" numLanes="1" speed="5.56" allow="pedestrian delivery bicycle" oneway="0"/>
    <type id="highway.tertiary" priority="10" numLanes="1" speed="22.22" disallow="tram rail_urban rail rail_electric rail_fast ship container cable_car subway aircraft wheelchair scooter drone" oneway="0"/>

    <edge id=":10580235542_0" function="internal">
        <lane id=":10580235542_0_0" index="0" disallow="tram rail_urban rail rail_electric rail_fast ship container cable_car subway aircraft wheelchair scooter drone" speed="22.22" length="1.91" shape="201707.20,-1064078.45 201708.25,-1064076.86"/>
    </edge>
    <edge id=":11175504961_0" function="internal">
        <lane id=":11175504961_0_0" index="0" disallow="tram rail_urban rail rail_electric rail_fast ship container cable_car subway aircraft wheelchair scooter drone" speed="27.78" length="0.26" shape="201117.18,-1064682.46 201116.98,-1064682.73"/>
        <lane id=":11175504961_0_1" index="1" disallow="tram rail_urban rail rail_electric rail_fast ship container cable_car subway aircraft wheelchair scooter drone" speed="27.78" length="0.26" shape="201119.70,-1064684.43 201119.59,-1064684.58"/>
    </edge>
    <edge id=":11967904887_0" function="internal">
        <lane id=":11967904887_0_0" index="0" disallow="tram rail_urban rail rail_electric rail_fast ship container cable_car subway aircraft wheelchair scooter drone" speed="27.78" length="0.30" shape="201434.92,-1063493.89 201435.13,-1063494.11"/>
        <lane id=":11967904887_0_1" index="1" disallow="tram rail_urban rail rail_electric rail_fast ship container cable_car subway aircraft wheelchair scooter drone" speed="27.78" length="0.30" shape="201437.26,-1063491.71 201437.46,-1063491.93"/>
    </edge>
    <edge id=":12576955709_0" function="internal">
        <lane id=":12576955709_0_0" index="0" disallow="tram rail_urban rail rail_electric rail_fast ship container cable_car subway aircraft wheelchair scooter drone" speed="27.78" length="0.10" shape="201722.23,-1064074.71 201722.23,-1064074.71"/>
    </edge>
    <edge id=":12576955713_0" function="internal">
        <lane id=":12576955713_0_0" index="0" disallow="tram rail_urban rail rail_electric rail_fast ship container cable_car subway aircraft wheelchair scooter drone" speed="27.78" length="0.33" shape="201735.94,-1064083.72 201735.72,-1064083.69"/>
        <lane id=":12576955713_0_1" index="1" disallow="tram rail_urban rail rail_electric rail_fast ship container cable_car subway aircraft wheelchair scooter drone" speed="27.78" length="0.33" shape="201735.57,-1064086.90 201735.25,-1064086.86"/>
        <lane id=":12576955713_0_2" index="2" disallow="tram rail_urban rail rail_electric rail_fast ship container cable_car subway aircraft wheelchair scooter drone" speed="27.78" length="0.33" shape="201735.21,-1064090.08 201734.78,-1064090.02"/>
    </edge>
    <edge id=":1327591713_0" function="internal">
        <lane id=":1327591713_0_0" index="0" disallow="tram rail_urban rail rail_electric rail_fast ship container cable_car subway aircraft wheelchair scooter drone" speed="27.78" length="7.92" shape="202110.69,-1064483.48 202112.24,-1064481.87 202113.59,-1064481.06 202114.98,-1064480.28 202116.66,-1064478.77"/>
        <lane id=":1327591713_0_1" index="1" disallow="tram rail_urban rail rail_electric rail_fast ship container cable_car subway aircraft wheelchair scooter drone" speed="27.78" length="7.92" shape="202110.69,-1064483.48 202111.88,-1064481.53 202112.40,-1064480.00 202112.95,-1064478.50 202114.26,-1064476.64"/>
        <lane id=":1327591713_0_2" index="2" disallow="tram rail_urban rail rail_electric rail_fast ship container cable_car subway aircraft wheelchair scooter drone" speed="27.78" length="7.92" shape="202108.15,-1064481.54 202109.38,-1064479.53 202109.93,-1064477.96 202110.52,-1064476.42 202111.87,-1064474.52"/>
        <lane id=":1327591713_0_3" index="3" disallow="tram rail_urban rail rail_electric rail_fast ship container cable_car subway aircraft wheelchair scooter drone" speed="27.78" length="7.92" shape="202105.61,-1064479.60 202106.88,-1064477.53 202107.46,-1064475.92 202108.08,-1064474.35 202109.48,-1064472.39"/>
    </edge>
    <edge id=":1327591829_0" function="internal">
        <lane id=":1327591829_0_0" index="0" disallow="tram rail_urban rail rail_electric rail_fast ship container cable_car subway aircraft wheelchair scooter drone" speed="11.11" length="9.37" shape="201460.39,-1063949.70 201469.75,-1063949.71"/>
    </edge>
    <edge id=":1327591829_1" function="internal">
        <lane id=":1327591829_1_0" index="0" disallow="tram rail_urban rail rail_electric rail_fast ship container cable_car subway aircraft wheelchair scooter drone" speed="6.07" length="7.78" shape="201460.39,-1063949.70 201463.15,-1063949.48 201465.11,-1063948.87 201466.27,-1063947.88 201466.64,-1063946.50"/>
    </edge>
    <edge id=":1327591829_2" function="internal">
        <lane id=":1327591829_2_0" index="0" disallow="tram rail_urban rail rail_electric rail_fast ship container cable_car subway aircraft wheelchair scooter drone" speed="6.14" length="7.76" shape="201463.45,-1063946.56 201463.86,-1063947.91 201465.05,-1063948.89 201467.01,-1063949.49 201469.75,-1063949.71"/>
    </edge>
    <edge id=":1327592131_0" function="internal">
        <lane id=":1327592131_0_0" index="0" disallow="tram rail_urban rail rail_electric rail_fast ship container cable_car subway aircraft wheelchair scooter drone" speed="11.11" length="0.30" shape="201390.08,-1063950.33 201390.38,-1063950.33"/>
    </edge>
    <edge id=":1972200355_0" function="internal">
        <lane id=":1972200355_0_0" index="0" disallow="tram rail_urban rail rail_electric rail_fast ship container cable_car subway aircraft wheelchair scooter drone" speed="27.78" length="0.41" shape="201618.12,-1064079.83 201617.94,-1064079.83 201617.82,-1064079.84 201617.69,-1064079.85 201617.51,-1064079.88"/>
        <lane id=":1972200355_0_1" index="1" disallow="tram rail_urban rail rail_electric rail_fast ship container cable_car subway aircraft wheelchair scooter drone" speed="27.78" length="0.41" shape="201618.21,-1064083.02 201618.15,-1064083.03 201618.10,-1064083.03 201618.06,-1064083.03 201618.00,-1064083.04"/>
    </edge>
    <edge id=":2212385667_0" function="internal">
        <lane id=":2212385667_0_0" index="0" disallow="tram rail_urban rail rail_electric rail_fast ship container cable_car subway aircraft wheelchair scooter drone" speed="27.78" length="0.30" shape="201949.48,-1064764.81 201949.61,-1064764.57"/>
        <lane id=":2212385667_0_1" index="1" disallow="tram rail_urban rail rail_electric rail_fast ship container cable_car subway aircraft wheelchair scooter drone" speed="27.78" length="0.30" shape="201946.68,-1064763.26 201946.82,-1064763.00"/>
        <lane id=":2212385667_0_2" index="2" disallow="tram rail_urban rail rail_electric rail_fast ship container cable_car subway aircraft wheelchair scooter drone" speed="27.78" length="0.30" shape="201943.88,-1064761.71 201944.03,-1064761.43"/>
    </edge>
    <edge id=":2212385956_0" function="internal">
        <lane id=":2212385956_0_0" index="0" disallow="tram rail_urban rail rail_electric rail_fast ship container cable_car subway aircraft wheelchair scooter drone" speed="27.78" length="0.38" shape="202005.21,-1064668.80 202005.52,-1064668.25"/>
        <lane id=":2212385956_0_1" index="1" disallow="tram rail_urban rail rail_electric rail_fast ship container cable_car subway aircraft wheelchair scooter drone" speed="27.78" length="0.38" shape="202002.48,-1064667.13 202002.67,-1064666.80"/>
        <lane id=":2212385956_0_2" index="2" disallow="tram rail_urban rail rail_electric rail_fast ship container cable_car subway aircraft wheelchair scooter drone" speed="27.78" length="0.38" shape="201999.75,-1064665.47 201999.81,-1064665.36"/>
    </edge>
    <edge id=":2212386783_0" function="internal">
        <lane id=":2212386783_0_0" index="0" disallow="tram rail_urban rail rail_electric rail_fast ship container cable_car subway aircraft wheelchair scooter drone" speed="27.78" length="0.36" shape="201982.13,-1064706.69 201982.26,-1064706.48"/>
        <lane id=":2212386783_0_1" index="1" disallow="tram rail_urban rail rail_electric rail_fast ship container cable_car subway aircraft wheelchair scooter drone" speed="27.78" length="0.36" shape="201979.34,-1064705.13 201979.52,-1064704.82"/>
        <lane id=":2212386783_0_2" index="2" disallow="tram rail_urban rail rail_electric rail_fast ship container cable_car subway aircraft wheelchair scooter drone" speed="27.78" length="0.36" shape="201976.55,-1064703.56 201976.79,-1064703.15"/>
    </edge>
    <edge id=":2238982744_0" function="internal">
        <lane id=":2238982744_0_0" index="0" disallow="tram rail_urban rail rail_electric rail_fast ship container cable_car subway aircraft wheelchair scooter drone" speed="13.89" length="0.22" shape="201737.89,-1064142.70 201737.94,-1064142.92"/>
    </edge>
    <edge id=":2653863062_0" function="internal">
        <lane id=":2653863062_0_0" index="0" disallow="tram rail_urban rail rail_electric rail_fast ship container cable_car subway aircraft wheelchair scooter drone" speed="5.65" length="6.94" shape="201413.21,-1063459.49 201412.40,-1063460.47 201412.34,-1063461.81 201413.02,-1063463.51 201414.44,-1063465.56"/>
    </edge>
    <edge id=":2653863062_1" function="internal">
        <lane id=":2653863062_1_0" index="0" disallow="tram rail_urban rail rail_electric rail_fast ship container cable_car subway aircraft wheelchair scooter drone" speed="27.78" length="11.12" shape="201404.89,-1063459.04 201411.95,-1063467.57"/>
        <lane id=":2653863062_1_1" index="1" disallow="tram rail_urban rail rail_electric rail_fast ship container cable_car subway aircraft wheelchair scooter drone" speed="27.78" length="11.12" shape="201407.32,-1063456.96 201414.44,-1063465.56"/>
    </edge>
    <edge id=":2653863182_0" function="internal">
        <lane id=":2653863182_0_0" index="0" disallow="tram rail_urban rail rail_electric rail_fast ship container cable_car subway aircraft wheelchair scooter drone" speed="27.78" length="9.35" shape="200758.44,-1063943.57 200749.12,-1063943.53"/>
        <lane id=":2653863182_0_1" index="1" disallow="tram rail_urban rail rail_electric rail_fast ship container cable_car subway aircraft wheelchair scooter drone" speed="27.78" length="9.35" shape="200758.46,-1063946.77 200749.08,-1063946.73"/>
    </edge>
    <edge id=":2653863182_2" function="internal">
        <lane id=":2653863182_2_0" index="0" disallow="tram rail_urban rail rail_electric rail_fast ship container cable_car subway aircraft wheelchair scooter drone" speed="6.18" length="7.79" shape="200758.46,-1063946.77 200755.72,-1063946.98 200753.75,-1063947.57 200752.54,-1063948.55 200752.10,-1063949.91"/>
    </edge>
    <edge id=":2653863182_3" function="internal">
        <lane id=":2653863182_3_0" index="0" disallow="tram rail_urban rail rail_electric rail_fast ship container cable_car subway aircraft wheelchair scooter drone" speed="6.05" length="7.83" shape="200755.30,-1063950.03 200754.96,-1063948.62 200753.81,-1063947.59 200751.85,-1063946.97 200749.08,-1063946.73"/>
    </edge>
    <edge id=":2653863185_0" function="internal">
        <lane id=":2653863185_0_0" index="0" disallow="tram rail_urban rail rail_electric rail_fast ship container cable_car subway aircraft wheelchair scooter drone" speed="27.78" length="9.45" shape="201469.74,-1063938.46 201460.26,-1063938.43"/>
        <lane id=":2653863185_0_1" index="1" disallow="tram rail_urban rail rail_electric rail_fast ship container cable_car subway aircraft wheelchair scooter drone" speed="27.78" length="9.45" shape="201469.71,-1063941.66 201460.28,-1063941.63"/>
    </edge>
    <edge id=":2653863185_2" function="internal">
        <lane id=":2653863185_2_0" index="0" disallow="tram rail_urban rail rail_electric rail_fast ship container cable_car subway aircraft wheelchair scooter drone" speed="6.05" length="7.84" shape="201469.71,-1063941.66 201466.93,-1063941.83 201464.96,-1063942.42 201463.79,-1063943.42 201463.41,-1063944.83"/>
    </edge>
    <edge id=":2653863185_3" function="internal">
        <lane id=":2653863185_3_0" index="0" disallow="tram rail_urban rail rail_electric rail_fast ship container cable_car subway aircraft wheelchair scooter drone" speed="6.13" length="7.81" shape="201466.61,-1063944.77 201466.20,-1063943.39 201465.00,-1063942.40 201463.03,-1063941.82 201460.28,-1063941.63"/>
    </edge>
    <edge id=":2653863187_0" function="internal">
        <lane id=":2653863187_0_0" index="0" disallow="tram rail_urban rail rail_electric rail_fast ship container cable_car subway aircraft wheelchair scooter drone" speed="27.78" length="9.38" shape="201238.56,-1063940.26 201229.18,-1063940.37"/>
        <lane id=":2653863187_0_1" index="1" disallow="tram rail_urban rail rail_electric rail_fast ship container cable_car subway aircraft wheelchair scooter drone" speed="27.78" length="9.38" shape="201238.60,-1063943.46 201229.21,-1063943.57"/>
    </edge>
    <edge id=":2653863187_2" function="internal">
        <lane id=":2653863187_2_0" index="0" disallow="tram rail_urban rail rail_electric rail_fast ship container cable_car subway aircraft wheelchair scooter drone" speed="6.07" length="7.79" shape="201238.60,-1063943.46 201235.84,-1063943.70 201233.89,-1063944.32 201232.73,-1063945.32 201232.37,-1063946.71"/>
    </edge>
    <edge id=":2653863187_3" function="internal">
        <lane id=":2653863187_3_0" index="0" disallow="tram rail_urban rail rail_electric rail_fast ship container cable_car subway aircraft wheelchair scooter drone" speed="6.12" length="7.77" shape="201235.57,-1063946.63 201235.14,-1063945.27 201233.94,-1063944.31 201231.96,-1063943.74 201229.21,-1063943.57"/>
    </edge>
    <edge id=":2653863191_0" function="internal">
        <lane id=":2653863191_0_0" index="0" disallow="tram rail_urban rail rail_electric rail_fast ship container cable_car subway aircraft wheelchair scooter drone" speed="27.78" length="9.79" shape="200969.61,-1063942.53 200959.82,-1063942.60"/>
        <lane id=":2653863191_0_1" index="1" disallow="tram rail_urban rail rail_electric rail_fast ship container cable_car subway aircraft wheelchair scooter drone" speed="27.78" length="9.79" shape="200969.63,-1063945.73 200959.83,-1063945.80"/>
    </edge>
    <edge id=":2653863191_2" function="internal">
        <lane id=":2653863191_2_0" index="0" disallow="tram rail_urban rail rail_electric rail_fast ship container cable_car subway aircraft wheelchair scooter drone" speed="5.78" length="8.73" shape="200969.63,-1063945.73 200966.60,-1063946.03 200964.66,-1063946.87 200963.82,-1063948.26 200964.08,-1063950.19"/>
    </edge>
    <edge id=":2653863191_3" function="internal">
        <lane id=":2653863191_3_0" index="0" disallow="tram rail_urban rail rail_electric rail_fast ship container cable_car subway aircraft wheelchair scooter drone" speed="7.27" length="8.46" shape="200967.08,-1063949.08 200966.17,-1063947.63 200964.66,-1063946.60 200962.55,-1063945.99 200959.83,-1063945.80"/>
    </edge>
    <edge id=":2653863197_0" function="internal">
        <lane id=":2653863197_0_0" index="0" disallow="tram rail_urban rail rail_electric rail_fast ship container cable_car subway aircraft wheelchair scooter drone" speed="6.04" length="7.87" shape="200752.04,-1063951.53 200752.39,-1063952.97 200753.54,-1063954.00 200755.51,-1063954.61 200758.29,-1063954.80"/>
    </edge>
    <edge id=":2653863197_1" function="internal">
        <lane id=":2653863197_1_0" index="0" disallow="tram rail_urban rail rail_electric rail_fast ship container cable_car subway aircraft wheelchair scooter drone" speed="11.11" length="9.42" shape="200748.88,-1063958.02 200758.30,-1063958.00"/>
        <lane id=":2653863197_1_1" index="1" disallow="tram rail_urban rail rail_electric rail_fast ship container cable_car subway aircraft wheelchair scooter drone" speed="11.11" length="9.42" shape="200748.88,-1063954.82 200758.29,-1063954.80"/>
    </edge>
    <edge id=":2653863197_3" function="internal">
        <lane id=":2653863197_3_0" index="0" disallow="tram rail_urban rail rail_electric rail_fast ship container cable_car subway aircraft wheelchair scooter drone" speed="6.18" length="7.83" shape="200748.88,-1063954.82 200751.62,-1063954.62 200753.59,-1063954.03 200754.80,-1063953.04 200755.24,-1063951.65"/>
    </edge>
    <edge id=":2653863201_0" function="internal">
        <lane id=":2653863201_0_0" index="0" disallow="tram rail_urban rail rail_electric rail_fast ship container cable_car subway aircraft wheelchair scooter drone" speed="11.11" length="9.35" shape="201229.46,-1063952.35 201238.81,-1063952.02"/>
    </edge>
    <edge id=":2653863201_1" function="internal">
        <lane id=":2653863201_1_0" index="0" disallow="tram rail_urban rail rail_electric rail_fast ship container cable_car subway aircraft wheelchair scooter drone" speed="6.12" length="7.73" shape="201229.46,-1063952.35 201232.19,-1063952.03 201234.13,-1063951.36 201235.28,-1063950.35 201235.63,-1063949.00"/>
    </edge>
    <edge id=":2653863201_2" function="internal">
        <lane id=":2653863201_2_0" index="0" disallow="tram rail_urban rail rail_electric rail_fast ship container cable_car subway aircraft wheelchair scooter drone" speed="6.09" length="7.74" shape="201232.44,-1063949.09 201232.87,-1063950.42 201234.07,-1063951.35 201236.05,-1063951.89 201238.81,-1063952.02"/>
    </edge>
    <edge id=":2653863221_0" function="internal">
        <lane id=":2653863221_0_0" index="0" disallow="tram rail_urban rail rail_electric rail_fast ship container cable_car subway aircraft wheelchair scooter drone" speed="13.89" length="0.46" shape="201756.12,-1064202.63 201756.22,-1064202.72 201756.29,-1064202.78 201756.38,-1064202.83 201756.50,-1064202.89"/>
    </edge>
    <edge id=":2868416278_0" function="internal">
        <lane id=":2868416278_0_0" index="0" disallow="tram rail_urban rail rail_electric rail_fast ship container cable_car subway aircraft wheelchair scooter drone" speed="27.78" length="0.54" shape="201725.72,-1064039.21 201725.69,-1064039.14 201725.68,-1064039.09 201725.66,-1064039.03 201725.65,-1064038.95"/>
        <lane id=":2868416278_0_1" index="1" disallow="tram rail_urban rail rail_electric rail_fast ship container cable_car subway aircraft wheelchair scooter drone" speed="27.78" length="0.54" shape="201722.73,-1064040.35 201722.65,-1064040.13 201722.60,-1064039.97 201722.56,-1064039.81 201722.51,-1064039.58"/>
    </edge>
    <edge id=":2868417405_0" function="internal">
        <lane id=":2868417405_0_0" index="0" disallow="tram rail_urban rail rail_electric rail_fast ship container cable_car subway aircraft wheelchair scooter drone" speed="27.78" length="0.45" shape="202077.12,-1064534.54 202077.40,-1064534.02"/>
        <lane id=":2868417405_0_1" index="1" disallow="tram rail_urban rail rail_electric rail_fast ship container cable_car subway aircraft wheelchair scooter drone" speed="27.78" length="0.45" shape="202074.35,-1064532.93 202074.56,-1064532.54"/>
        <lane id=":2868417405_0_2" index="2" disallow="tram rail_urban rail rail_electric rail_fast ship container cable_car subway aircraft wheelchair scooter drone" speed="27.78" length="0.45" shape="202071.58,-1064531.33 202071.72,-1064531.07"/>
    </edge>
    <edge id=":2868431432_0" function="internal">
        <lane id=":2868431432_0_0" index="0" disallow="tram rail_urban rail rail_electric rail_fast ship container cable_car subway aircraft wheelchair scooter drone" speed="27.78" length="0.26" shape="201646.21,-1064079.10 201645.82,-1064079.09"/>
        <lane id=":2868431432_0_1" index="1" disallow="tram rail_urban rail rail_electric rail_fast ship container cable_car subway aircraft wheelchair scooter drone" speed="27.78" length="0.26" shape="201646.03,-1064082.29 201645.90,-1064082.29"/>
    </edge>
    <edge id=":2870160356_0" function="internal">
        <lane id=":2870160356_0_0" index="0" disallow="tram rail_urban rail rail_electric rail_fast ship container cable_car subway aircraft wheelchair scooter drone" speed="27.78" length="0.25" shape="201607.79,-1063693.86 201607.91,-1063694.02"/>
        <lane id=":2870160356_0_1" index="1" disallow="tram rail_urban rail rail_electric rail_fast ship container cable_car subway aircraft wheelchair scooter drone" speed="27.78" length="0.25" shape="201610.38,-1063691.98 201610.55,-1063692.23"/>
    </edge>
    <edge id=":3775040357_0" function="internal">
        <lane id=":3775040357_0_0" index="0" disallow="tram rail_urban rail rail_electric rail_fast ship container cable_car subway aircraft wheelchair scooter drone" speed="13.89" length="0.27" shape="202124.57,-1064218.61 202124.85,-1064218.61"/>
    </edge>
    <edge id=":3775040360_0" function="internal">
        <lane id=":3775040360_0_0" index="0" disallow="tram rail_urban rail rail_electric rail_fast ship container cable_car subway aircraft wheelchair scooter drone" speed="13.89" length="0.28" shape="202089.13,-1064218.24 202089.41,-1064218.24"/>
    </edge>
    <edge id=":430983368_0" function="internal">
        <lane id=":430983368_0_0" index="0" disallow="tram rail_urban rail rail_electric rail_fast ship container cable_car subway aircraft wheelchair scooter drone" speed="27.78" length="0.52" shape="202175.47,-1064132.80 202175.24,-1064132.69 202175.08,-1064132.62 202174.91,-1064132.56 202174.67,-1064132.47"/>
        <lane id=":430983368_0_1" index="1" disallow="tram rail_urban rail rail_electric rail_fast ship container cable_car subway aircraft wheelchair scooter drone" speed="27.78" length="0.52" shape="202174.07,-1064135.68 202173.93,-1064135.62 202173.84,-1064135.57 202173.74,-1064135.53 202173.60,-1064135.48"/>
        <lane id=":430983368_0_2" index="2" disallow="tram rail_urban rail rail_electric rail_fast ship container cable_car subway aircraft wheelchair scooter drone" speed="27.78" length="0.52" shape="202172.68,-1064138.56 202172.63,-1064138.54 202172.60,-1064138.53 202172.57,-1064138.51 202172.52,-1064138.50"/>
    </edge>
    <edge id=":430983369_0" function="internal">
        <lane id=":430983369_0_0" index="0" disallow="tram rail_urban rail rail_electric rail_fast ship container cable_car subway aircraft wheelchair scooter drone" speed="27.78" length="0.49" shape="202144.44,-1064124.32 202144.20,-1064124.27 202144.03,-1064124.24 202143.87,-1064124.22 202143.63,-1064124.20"/>
        <lane id=":430983369_0_1" index="1" disallow="tram rail_urban rail rail_electric rail_fast ship container cable_car subway aircraft wheelchair scooter drone" speed="27.78" length="0.49" shape="202143.82,-1064127.46 202143.68,-1064127.43 202143.58,-1064127.41 202143.48,-1064127.40 202143.34,-1064127.39"/>
        <lane id=":430983369_0_2" index="2" disallow="tram rail_urban rail rail_electric rail_fast ship container cable_car subway aircraft wheelchair scooter drone" speed="27.78" length="0.49" shape="202143.21,-1064130.60 202143.16,-1064130.59 202143.12,-1064130.58 202143.09,-1064130.58 202143.04,-1064130.57"/>
    </edge>
    <edge id=":430983573_0" function="internal">
        <lane id=":430983573_0_0" index="0" disallow="tram rail_urban rail rail_electric rail_fast ship container cable_car subway aircraft wheelchair scooter drone" speed="27.78" length="11.45" shape="201547.67,-1064112.52 201545.15,-1064114.91 201543.40,-1064116.53 201541.78,-1064118.27 201539.63,-1064120.98"/>
        <lane id=":430983573_0_1" index="1" disallow="tram rail_urban rail rail_electric rail_fast ship container cable_car subway aircraft wheelchair scooter drone" speed="27.78" length="11.45" shape="201549.91,-1064114.81 201547.49,-1064117.10 201545.81,-1064118.65 201544.25,-1064120.30 201542.18,-1064122.90"/>
    </edge>
    <edge id=":430983573_2" function="internal">
        <lane id=":430983573_2_0" index="0" disallow="tram rail_urban rail rail_electric rail_fast ship container cable_car subway aircraft wheelchair scooter drone" speed="11.96" length="11.43" shape="201540.64,-1064111.06 201540.96,-1064114.15 201541.31,-1064116.39 201541.07,-1064118.45 201539.63,-1064120.98"/>
        <lane id=":430983573_2_1" index="1" disallow="tram rail_urban rail rail_electric rail_fast ship container cable_car subway aircraft wheelchair scooter drone" speed="13.11" length="11.43" shape="201543.84,-1064110.97 201544.16,-1064114.70 201544.43,-1064117.39 201543.99,-1064119.86 201542.18,-1064122.90"/>
    </edge>
    <edge id=":431011612_0" function="internal">
        <lane id=":431011612_0_0" index="0" disallow="tram rail_urban rail rail_electric rail_fast ship container cable_car subway aircraft wheelchair scooter drone" speed="27.78" length="0.27" shape="201512.61,-1063581.78 201512.73,-1063581.93"/>
        <lane id=":431011612_0_1" index="1" disallow="tram rail_urban rail rail_electric rail_fast ship container cable_car subway aircraft wheelchair scooter drone" speed="27.78" length="0.27" shape="201515.04,-1063579.70 201515.26,-1063579.97"/>
    </edge>
    <edge id=":431025185_0" function="internal">
        <lane id=":431025185_0_0" index="0" disallow="tram rail_urban rail rail_electric rail_fast ship container cable_car subway aircraft wheelchair scooter drone" speed="5.50" length="5.79" shape="201566.50,-1063938.05 201566.13,-1063938.61 201565.12,-1063939.03 201563.45,-1063939.30 201561.12,-1063939.43"/>
    </edge>
    <edge id=":431025185_1" function="internal">
        <lane id=":431025185_1_0" index="0" disallow="tram rail_urban rail rail_electric rail_fast ship container cable_car subway aircraft wheelchair scooter drone" speed="18.16" length="12.51" shape="201573.52,-1063943.50 201570.56,-1063942.43 201567.99,-1063942.20 201565.11,-1063942.40 201561.22,-1063942.63"/>
    </edge>
    <edge id=":431025185_2" function="internal">
        <lane id=":431025185_2_0" index="0" disallow="tram rail_urban rail rail_electric rail_fast ship container cable_car subway aircraft wheelchair scooter drone" speed="9.86" length="11.55" shape="201563.73,-1063946.89 201566.11,-1063945.39 201567.98,-1063943.37 201569.33,-1063940.86 201570.18,-1063937.84"/>
    </edge>
    <edge id=":431025186_0" function="internal">
        <lane id=":431025186_0_0" index="0" disallow="tram rail_urban rail rail_electric rail_fast ship container cable_car subway aircraft wheelchair scooter drone" speed="22.22" length="0.50" shape="201304.53,-1063615.52 201304.43,-1063615.41 201304.36,-1063615.34 201304.29,-1063615.27 201304.18,-1063615.16"/>
    </edge>
    <edge id=":431025186_1" function="internal">
        <lane id=":431025186_1_0" index="0" disallow="tram rail_urban rail rail_electric rail_fast ship container cable_car subway aircraft wheelchair scooter drone" speed="22.22" length="0.17" shape="201302.00,-1063617.51 201302.03,-1063617.54 201302.06,-1063617.57 201302.08,-1063617.59 201302.11,-1063617.63"/>
    </edge>
    <edge id=":431025187_0" function="internal">