<?xml version="1.0" encoding="UTF-8"?>

<!-- generated on 2025-07-16 16:08:44.055201 by randomTrips.py v1_22_0+0002-63e50f52594
<configuration>
    <net-file value="networkMurilopolis.net.xml"/>
    <output-trip-file value="routesMurilopolis.rou.xml"/>
    <validate value="True"/>
</configuration>
-->

<!-- generated on 2025-07-16 16:08:43 by Eclipse SUMO duarouter Version 1.22.0
<duarouterConfiguration xmlns:xsi="http://www.w3.org/2001/XMLSchema-instance" xsi:noNamespaceSchemaLocation="http://sumo.dlr.de/xsd/duarouterConfiguration.xsd">

    <input>
        <net-file value="networkMurilopolis.net.xml"/>
        <route-files value="routesMurilopolis.rou.xml"/>
    </input>

    <output>
        <output-file value="routesMurilopolis.rou.xml.tmp"/>
        <alternatives-output value="NUL"/>
        <write-trips value="true"/>
    </output>

    <time>
        <begin value="0"/>
        <end value="3600"/>
    </time>

    <report>
        <no-warnings value="true"/>
        <ignore-errors value="true"/>
        <no-step-log value="true"/>
    </report>

</duarouterConfiguration>
-->

<routes xmlns:xsi="http://www.w3.org/2001/XMLSchema-instance"
    xsi:noNamespaceSchemaLocation="http://sumo.dlr.de/xsd/routes_file.xsd">
    <trip id="2" depart="2.00" from="694347708#6" to="679721377#2" />
    <trip id="7" depart="7.00" from="677154860#1" to="516249338#0" />
    <trip id="8" depart="8.00" from="245718032#1" to="677154855#0" />
    <trip id="9" depart="9.00" from="837035245#2" to="-259925454" />
    <trip id="10" depart="10.00" from="837035245#2" to="694347708#2" />
    <trip id="11" depart="11.00" from="282898475#2" to="1358880980" />
    <trip id="14" depart="14.00" from="837035245#7" to="677154855#2" />
    <trip id="15" depart="15.00" from="837035245#2" to="694347708#6" />
    <trip id="16" depart="16.00" from="515712906#3" to="970446127#5" />
    <trip id="17" depart="17.00" from="298030653#2" to="516249338#1" />
    <trip id="18" depart="18.00" from="837035245#5" to="677154855#4" />
    <trip id="19" depart="19.00" from="837035247#1" to="677154853" />
    <trip id="21" depart="21.00" from="245718032#2" to="282898471#0" />
    <trip id="23" depart="23.00" from="-677154860#1" to="259925460" />
    <trip id="26" depart="26.00" from="245718032#8" to="970446127#0" />
    <trip id="28" depart="28.00" from="179646927#0" to="694347708#6" />
    <trip id="30" depart="30.00" from="970446127#7" to="677154860#0" />
    <trip id="32" depart="32.00" from="837035245#7" to="837035244#0" />
    <trip id="33" depart="33.00" from="245718032#2" to="-283102541#1" />
    <trip id="35" depart="35.00" from="245718032#0" to="970446127#1" />
    <trip id="38" depart="38.00" from="905801988" to="37058508#7" />
    <trip id="41" depart="41.00" from="670624600" to="905801985" />
    <trip id="45" depart="45.00" from="-751846091" to="677154858" />
    <trip id="46" depart="46.00" from="837035245#0" to="37058508#2" />
    <trip id="48" depart="48.00" from="edge1" to="515712906#4" />
    <trip id="51" depart="51.00" from="679721377#1" to="516249335" />
    <trip id="52" depart="52.00" from="245718032#8" to="677154860#1" />
    <trip id="53" depart="53.00" from="-751846091" to="37058508#4" />
    <trip id="56" depart="56.00" from="49012171" to="179646927#2" />
    <trip id="57" depart="57.00" from="905801987" to="905801983#1" />
    <trip id="58" depart="58.00" from="282898471#0" to="677154860#0" />
    <trip id="60" depart="60.00" from="701733848" to="516249335" />
    <trip id="61" depart="61.00" from="837035244#0" to="515712906#4" />
    <trip id="62" depart="62.00" from="-196775307" to="282898475#1" />
    <trip id="64" depart="64.00" from="905801983#1" to="837035245#6" />
    <trip id="66" depart="66.00" from="905801983#1" to="970446127#1" />
    <trip id="67" depart="67.00" from="-516249338#4" to="48570408" />
    <trip id="69" depart="69.00" from="751604168" to="1358702055#0" />
    <trip id="70" depart="70.00" from="37061715" to="516249338#1" />
    <trip id="71" depart="71.00" from="245718032#7" to="905801983#1" />
    <trip id="75" depart="75.00" from="edge1" to="677154863" />
    <trip id="78" depart="78.00" from="282898475#1" to="677154855#0" />
    <trip id="79" depart="79.00" from="245718032#2" to="245718032#2" />
    <trip id="80" depart="80.00" from="-516249338#2" to="677154858" />
    <trip id="81" depart="81.00" from="245718032#2" to="905801986" />
    <trip id="83" depart="83.00" from="245718032#4" to="679721377#0" />
    <trip id="84" depart="84.00" from="245718032#0" to="1358702055#1" />
    <trip id="85" depart="85.00" from="970446127#0" to="516249338#4" />
    <trip id="87" depart="87.00" from="837035245#2" to="186502946#1" />
    <trip id="88" depart="88.00" from="-677154860#0" to="37058508#3" />
    <trip id="89" depart="89.00" from="37058508#2" to="37058508#8" />
    <trip id="90" depart="90.00" from="694347708#5" to="679721377#1" />
    <trip id="94" depart="94.00" from="186502946#0" to="37058508#6" />
    <trip id="96" depart="96.00" from="245718032#5" to="905801989" />
    <trip id="99" depart="99.00" from="edge1" to="837035245#7" />
    <trip id="101" depart="101.00" from="837035245#7" to="179646927#1" />
    <trip id="104" depart="104.00" from="298030653#2" to="970446127#6" />
    <trip id="105" depart="105.00" from="245718032#7" to="837035244#1" />
    <trip id="110" depart="110.00" from="970446127#4" to="677154853" />
    <trip id="112" depart="112.00" from="-516249338#0" to="677154855#0" />
    <trip id="113" depart="113.00" from="49012171" to="837035247#1" />
    <trip id="117" depart="117.00" from="245718032#3" to="1078908686" />
    <trip id="122" depart="122.00" from="186502946#2" to="694347708#4" />
    <trip id="123" depart="123.00" from="245718032#4" to="37058508#0" />
    <trip id="126" depart="126.00" from="-516249338#3" to="37058508#7" />
    <trip id="127" depart="127.00" from="edge1" to="edge2" />
    <trip id="129" depart="129.00" from="245718032#7" to="970147017" />
    <trip id="130" depart="130.00" from="905801983#1" to="905801983#2" />
    <trip id="131" depart="131.00" from="298030653#1" to="1358880980" />
    <trip id="132" depart="132.00" from="837035245#5" to="694347708#2" />
    <trip id="133" depart="133.00" from="677154855#2" to="970446127#7" />
    <trip id="136" depart="136.00" from="679721375" to="970446127#0" />
    <trip id="138" depart="138.00" from="-677154860#1" to="516249338#1" />
    <trip id="139" depart="139.00" from="245718032#8" to="677154855#3" />
    <trip id="145" depart="145.00" from="-196775307" to="837035244#0" />
    <trip id="147" depart="147.00" from="701733847#0" to="516249338#1" />
    <trip id="150" depart="150.00" from="905801985" to="516249338#0" />
    <trip id="151" depart="151.00" from="837035245#6" to="677154853" />
    <trip id="153" depart="153.00" from="282898471#1" to="905801985" />
    <trip id="154" depart="154.00" from="837035245#0" to="837035248" />
    <trip id="156" depart="156.00" from="245718032#5" to="-751846091" />
    <trip id="157" depart="157.00" from="837035244#0" to="905801983#2" />
    <trip id="160" depart="160.00" from="837035248" to="970446127#5" />
    <trip id="161" depart="161.00" from="837035245#2" to="905801983#2" />
    <trip id="163" depart="163.00" from="282898475#1" to="970147017" />
    <trip id="164" depart="164.00" from="837035245#1" to="905801983#0" />
    <trip id="166" depart="166.00" from="837035244#1" to="1078908685" />
    <trip id="167" depart="167.00" from="905801983#0" to="837035248" />
    <trip id="168" depart="168.00" from="245718032#1" to="837035245#4" />
    <trip id="172" depart="172.00" from="282898475#0" to="905801983#0" />
    <trip id="173" depart="173.00" from="970446127#4" to="259925460" />
    <trip id="175" depart="175.00" from="970446127#6" to="516249335" />
    <trip id="179" depart="179.00" from="-751846091" to="37058508#4" />
    <trip id="181" depart="181.00" from="677154855#1" to="515712906#2" />
    <trip id="182" depart="182.00" from="32348142#0" to="677154853" />
    <trip id="183" depart="183.00" from="245718032#6" to="694347708#3" />
    <trip id="184" depart="184.00" from="-196775307" to="905801989" />
    <trip id="186" depart="186.00" from="701733847#0" to="679721377#1" />
    <trip id="189" depart="189.00" from="282898471#2" to="837035247#0" />
    <trip id="191" depart="191.00" from="282898471#1" to="37058508#1" />
    <trip id="193" depart="193.00" from="1078908686" to="37058508#2" />
    <trip id="195" depart="195.00" from="905801985" to="677154855#4" />
    <trip id="196" depart="196.00" from="282898471#0" to="516249338#1" />
    <trip id="197" depart="197.00" from="-196775307" to="259925480" />
    <trip id="202" depart="202.00" from="837035245#0" to="179646927#1" />
    <trip id="203" depart="203.00" from="-516249338#4" to="515712906#2" />
    <trip id="207" depart="207.00" from="186502946#1" to="-283102541#0" />
    <trip id="208" depart="208.00" from="245718032#5" to="37061715" />
    <trip id="211" depart="211.00" from="186502946#1" to="694347708#1" />
    <trip id="214" depart="214.00" from="701733847#1" to="837035244#0" />
    <trip id="215" depart="215.00" from="-677154860#1" to="37058508#3" />
    <trip id="216" depart="216.00" from="179646927#1" to="970446127#3" />
    <trip id="218" depart="218.00" from="245718032#5" to="837035247#0" />
    <trip id="220" depart="220.00" from="679721375" to="970446127#7" />
    <trip id="222" depart="222.00" from="905801983#2" to="677154855#4" />
    <trip id="224" depart="224.00" from="837035245#5" to="516249338#1" />
    <trip id="227" depart="227.00" from="245718032#5" to="677154860#0" />
    <trip id="228" depart="228.00" from="751604168" to="515712906#3" />
    <trip id="229" depart="229.00" from="677154855#4" to="259925460" />
    <trip id="230" depart="230.00" from="-516249338#3" to="259925480" />
    <trip id="231" depart="231.00" from="245718032#8" to="282898475#0" />
    <trip id="233" depart="233.00" from="245718032#3" to="694347708#1" />
    <trip id="238" depart="238.00" from="670624600" to="694347708#1" />
    <trip id="239" depart="239.00" from="837035247#1" to="751846091" />
    <trip id="240" depart="240.00" from="298030653#2" to="-259925454" />
    <trip id="242" depart="242.00" from="837035247#0" to="970446127#2" />
    <trip id="244" depart="244.00" from="515712906#4" to="677154855#2" />
    <trip id="245" depart="245.00" from="245718032#1" to="245718032#2" />
    <trip id="247" depart="247.00" from="282898475#1" to="679721377#2" />
    <trip id="250" depart="250.00" from="677154855#3" to="-283102541#0" />
    <trip id="251" depart="251.00" from="32348142#1" to="516249338#3" />
    <trip id="252" depart="252.00" from="-259925480" to="677154860#1" />
    <trip id="253" depart="253.00" from="1358702055#0" to="37058508#8" />
    <trip id="255" depart="255.00" from="245718032#0" to="282898475#1" />
    <trip id="256" depart="256.00" from="701733848" to="32348142#0" />
    <trip id="257" depart="257.00" from="701733847#1" to="837035245#6" />
    <trip id="259" depart="259.00" from="-259925460" to="516249335" />
    <trip id="267" depart="267.00" from="694347708#1" to="751846091" />
    <trip id="268" depart="268.00" from="179646927#0" to="677154855#3" />
    <trip id="269" depart="269.00" from="701733847#0" to="1078908685" />
    <trip id="270" depart="270.00" from="837035245#3" to="970446127#4" />
    <trip id="271" depart="271.00" from="-751846091" to="-283102541#0" />
    <trip id="272" depart="272.00" from="282898471#2" to="679721377#2" />
    <trip id="273" depart="273.00" from="970446127#3" to="37058508#0" />
    <trip id="275" depart="275.00" from="679721377#2" to="677154858" />
    <trip id="277" depart="277.00" from="837035247#0" to="677154855#2" />
    <trip id="281" depart="281.00" from="50733424#2" to="283102541#0" />
    <trip id="282" depart="282.00" from="837035247#0" to="837035245#5" />
    <trip id="283" depart="283.00" from="-677154860#1" to="970446127#3" />
    <trip id="285" depart="285.00" from="694347708#2" to="37058508#4" />
    <trip id="286" depart="286.00" from="694347708#5" to="970446127#4" />
    <trip id="287" depart="287.00" from="245718032#8" to="837035245#3" />
    <trip id="288" depart="288.00" from="515712906#3" to="48570408" />
    <trip id="290" depart="290.00" from="245718032#8" to="837035247#1" />
    <trip id="294" depart="294.00" from="298030653#2" to="-283102541#0" />
    <trip id="295" depart="295.00" from="837035247#0" to="186502946#0" />
    <trip id="296" depart="296.00" from="245718032#0" to="837035245#1" />
    <trip id="297" depart="297.00" from="282898475#2" to="905801983#2" />
    <trip id="298" depart="298.00" from="694347708#1" to="259925460" />
    <trip id="299" depart="299.00" from="-259925454" to="970446127#1" />
    <trip id="302" depart="302.00" from="679721377#2" to="677154860#1" />
    <trip id="307" depart="307.00" from="515712906#2" to="37058508#3" />
    <trip id="308" depart="308.00" from="701733847#0" to="282898475#1" />
    <trip id="310" depart="310.00" from="245718032#5" to="1078908686" />
    <trip id="311" depart="311.00" from="186502946#0" to="1078908686" />
    <trip id="315" depart="315.00" from="970446127#5" to="515712906#3" />
    <trip id="318" depart="318.00" from="179646927#1" to="-259925460" />
    <trip id="319" depart="319.00" from="515712906#3" to="259925460" />
    <trip id="320" depart="320.00" from="970446127#5" to="516249338#1" />
    <trip id="321" depart="321.00" from="694347708#0" to="1358702055#0" />
    <trip id="322" depart="322.00" from="837035248" to="48570408.161" />
    <trip id="323" depart="323.00" from="905801983#0" to="516249338#4" />
    <trip id="327" depart="327.00" from="837035245#4" to="37058508#0" />
    <trip id="328" depart="328.00" from="-516249338#3" to="677154858" />
    <trip id="329" depart="329.00" from="-516249338#0" to="1358702055#3" />
    <trip id="331" depart="331.00" from="edge1" to="1078908686" />
    <trip id="332" depart="332.00" from="751604168" to="677154855#3" />
    <trip id="334" depart="334.00" from="515712906#1" to="37058508#6" />
    <trip id="337" depart="337.00" from="677154855#3" to="677154855#3" />
    <trip id="338" depart="338.00" from="694347708#6" to="970446127#1" />
    <trip id="342" depart="342.00" from="-196775307" to="37058508#6" />
    <trip id="344" depart="344.00" from="245718032#3" to="694347708#3" />
    <trip id="345" depart="345.00" from="694347708#1" to="37058508#7" />
    <trip id="347" depart="347.00" from="837035244#1" to="677154855#5" />
    <trip id="353" depart="353.00" from="701733847#1" to="516249338#4" />
    <trip id="360" depart="360.00" from="-677154858" to="970446127#3" />
    <trip id="361" depart="361.00" from="837035245#6" to="516249338#4" />
    <trip id="366" depart="366.00" from="905801988" to="186502946#0" />
    <trip id="367" depart="367.00" from="670624600" to="677154860#0" />
    <trip id="371" depart="371.00" from="282898475#0" to="694347708#1" />
    <trip id="372" depart="372.00" from="259925480" to="970446127#1" />
    <trip id="373" depart="373.00" from="837035245#3" to="516249338#1" />
    <trip id="375" depart="375.00" from="282898471#3" to="970446127#4" />
    <trip id="378" depart="378.00" from="515712906#4" to="37058508#10" />
    <trip id="379" depart="379.00" from="186502946#0" to="298030653#1" />
    <trip id="380" depart="380.00" from="701733848" to="677154855#5" />
    <trip id="381" depart="381.00" from="701733848" to="196775307" />
    <trip id="386" depart="386.00" from="1358880980" to="516249338#1" />
    <trip id="390" depart="390.00" from="837035245#5" to="49012171" />
    <trip id="396" depart="396.00" from="905801983#1" to="905801983#0" />
    <trip id="401" depart="401.00" from="670624600" to="edge2" />
    <trip id="402" depart="402.00" from="48570408.161" to="1358702055#3" />
    <trip id="404" depart="404.00" from="516249335" to="516249338#0" />
    <trip id="406" depart="406.00" from="186502946#0" to="694347708#1" />
    <trip id="409" depart="409.00" from="701733847#0" to="694347708#3" />
    <trip id="410" depart="410.00" from="837035245#2" to="32348142#1" />
    <trip id="412" depart="412.00" from="970446127#6" to="48570408.161" />
    <trip id="415" depart="415.00" from="905801983#0" to="37058508#5" />
    <trip id="416" depart="416.00" from="515712906#2" to="37058508#7" />
    <trip id="417" depart="417.00" from="694347708#4" to="37058508#1" />
    <trip id="420" depart="420.00" from="282898475#2" to="694347708#1" />
    <trip id="422" depart="422.00" from="837035247#0" to="837035248" />
    <trip id="423" depart="423.00" from="298030653#2" to="282898475#0" />
    <trip id="424" depart="424.00" from="694347708#3" to="751604168" />
    <trip id="425" depart="425.00" from="905801983#0" to="-283102541#1" />
    <trip id="426" depart="426.00" from="-516249338#2" to="677154858" />
    <trip id="427" depart="427.00" from="905801989" to="edge2" />
    <trip id="428" depart="428.00" from="701733847#0" to="37058508#4" />
    <trip id="429" depart="429.00" from="-677154860#0" to="677154860#0" />
    <trip id="430" depart="430.00" from="905801983#0" to="37058508#5" />
    <trip id="431" depart="431.00" from="694347708#0" to="905801986" />
    <trip id="437" depart="437.00" from="905801983#0" to="677154855#5" />
    <trip id="438" depart="438.00" from="245718032#4" to="905801987" />
    <trip id="439" depart="439.00" from="1358702055#1" to="37058508#8" />
    <trip id="440" depart="440.00" from="245718032#6" to="245718032#7" />
    <trip id="442" depart="442.00" from="905801985" to="679721377#2" />
    <trip id="443" depart="443.00" from="1358702055#3" to="37058508#5" />
    <trip id="446" depart="446.00" from="245718032#5" to="837035247#0" />
    <trip id="447" depart="447.00" from="186502946#1" to="32348142#1" />
    <trip id="449" depart="449.00" from="516249338#2" to="516249338#4" />
    <trip id="454" depart="454.00" from="-516249335" to="677154855#3" />
    <trip id="455" depart="455.00" from="49012171" to="905801986" />
    <trip id="465" depart="465.00" from="282898471#0" to="701733847#1" />
    <trip id="466" depart="466.00" from="179646927#1" to="1358702055#1" />
    <trip id="467" depart="467.00" from="515712906#3" to="970446127#5" />
    <trip id="470" depart="470.00" from="837035245#4" to="37061715" />
    <trip id="472" depart="472.00" from="282898475#2" to="1078908686" />
    <trip id="475" depart="475.00" from="694347708#4" to="970446127#6" />
    <trip id="477" depart="477.00" from="298030653#0" to="837035245#0" />
    <trip id="478" depart="478.00" from="-259925454" to="516249335" />
    <trip id="480" depart="480.00" from="679721377#0" to="677154855#0" />
    <trip id="481" depart="481.00" from="837035245#4" to="970446127#0" />
    <trip id="486" depart="486.00" from="837035245#4" to="905801987" />
    <trip id="487" depart="487.00" from="282898471#1" to="37058508#1" />
    <trip id="489" depart="489.00" from="282898471#1" to="48570408.161" />
    <trip id="491" depart="491.00" from="1358702055#0" to="37058508#7" />
    <trip id="493" depart="493.00" from="970446127#1" to="37058508#2" />
    <trip id="494" depart="494.00" from="701733847#0" to="1358880980" />
    <trip id="496" depart="496.00" from="48570408.161" to="37058508#1" />
    <trip id="497" depart="497.00" from="970446127#2" to="-283102541#1" />
    <trip id="498" depart="498.00" from="298030653#1" to="37058508#5" />
    <trip id="501" depart="501.00" from="515712906#4" to="970446127#5" />
    <trip id="502" depart="502.00" from="283102541#1" to="37058508#0" />
    <trip id="503" depart="503.00" from="186502946#0" to="1078908686" />
    <trip id="504" depart="504.00" from="837035245#7" to="37058508#7" />
    <trip id="505" depart="505.00" from="679721375" to="677154860#1" />
    <trip id="506" depart="506.00" from="677154855#0" to="-259925480" />
    <trip id="508" depart="508.00" from="1078908686" to="516249338#3" />
    <trip id="509" depart="509.00" from="-516249338#2" to="751846091" />
    <trip id="511" depart="511.00" from="837035248" to="282898475#1" />
    <trip id="513" depart="513.00" from="-196775307" to="837035248" />
    <trip id="515" depart="515.00" from="245718032#5" to="179646927#2" />
    <trip id="518" depart="518.00" from="245718032#4" to="282898475#1" />
    <trip id="520" depart="520.00" from="701733847#0" to="515712906#4" />
    <trip id="521" depart="521.00" from="701733847#0" to="37061715" />
    <trip id="522" depart="522.00" from="837035244#0" to="515712906#2" />
    <trip id="525" depart="525.00" from="837035244#0" to="905801983#0" />
    <trip id="526" depart="526.00" from="515712906#1" to="37058508#7" />
    <trip id="528" depart="528.00" from="37061715" to="37058508#0" />
    <trip id="529" depart="529.00" from="679721377#2" to="48570408.161" />
    <trip id="531" depart="531.00" from="-516249338#4" to="677154855#3" />
    <trip id="532" depart="532.00" from="-516249338#2" to="259925460" />
    <trip id="533" depart="533.00" from="677154855#4" to="516249338#1" />
    <trip id="534" depart="534.00" from="282898475#0" to="edge2" />
    <trip id="535" depart="535.00" from="515712906#2" to="37058508#7" />
    <trip id="537" depart="537.00" from="694347708#1" to="837035247#1" />
    <trip id="541" depart="541.00" from="282898475#2" to="37058508#7" />
    <trip id="544" depart="544.00" from="298030653#2" to="1358880980" />
    <trip id="548" depart="548.00" from="837035245#2" to="516249338#2" />
    <trip id="549" depart="549.00" from="670624600" to="516249338#3" />
    <trip id="550" depart="550.00" from="282898475#0" to="1078908686" />
    <trip id="552" depart="552.00" from="701733847#1" to="905801983#0" />
    <trip id="553" depart="553.00" from="694347708#4" to="970446127#4" />
    <trip id="558" depart="558.00" from="298030653#1" to="751846091" />
    <trip id="560" depart="560.00" from="837035245#7" to="970446127#5" />
    <trip id="561" depart="561.00" from="837035245#3" to="677154855#4" />
    <trip id="563" depart="563.00" from="970147017" to="837035245#6" />
    <trip id="564" depart="564.00" from="245718032#8" to="186502946#0" />
    <trip id="566" depart="566.00" from="282898475#2" to="-259925454" />
    <trip id="567" depart="567.00" from="837035248" to="516249338#3" />
    <trip id="572" depart="572.00" from="298030653#1" to="694347708#5" />
    <trip id="573" depart="573.00" from="751846091" to="516249338#3" />
    <trip id="574" depart="574.00" from="-516249338#4" to="-516249338#0" />
    <trip id="577" depart="577.00" from="679721375" to="48570408" />
    <trip id="579" depart="579.00" from="701733847#1" to="1078908685" />
    <trip id="581" depart="581.00" from="679721377#1" to="48570408" />
    <trip id="583" depart="583.00" from="32348142#1" to="677154855#2" />
    <trip id="585" depart="585.00" from="245718032#0" to="1358702055#2" />
    <trip id="586" depart="586.00" from="245718032#6" to="282898475#1" />
    <trip id="588" depart="588.00" from="179646927#1" to="32348142#0" />
    <trip id="589" depart="589.00" from="694347708#1" to="49012171" />
    <trip id="590" depart="590.00" from="837035245#5" to="837035245#3" />
    <trip id="593" depart="593.00" from="905801989" to="837035248" />
    <trip id="594" depart="594.00" from="516249338#3" to="516249338#4" />
    <trip id="595" depart="595.00" from="694347708#2" to="37058508#2" />
    <trip id="597" depart="597.00" from="282898475#0" to="837035245#2" />
    <trip id="601" depart="601.00" from="670624600" to="515712906#3" />
    <trip id="603" depart="603.00" from="282898475#2" to="282898475#2" />
    <trip id="607" depart="607.00" from="694347708#5" to="837035245#4" />
    <trip id="612" depart="612.00" from="751846091" to="48570408.161" />
    <trip id="613" depart="613.00" from="701733847#1" to="751604168" />
    <trip id="617" depart="617.00" from="677154855#4" to="1358702055#3" />
    <trip id="618" depart="618.00" from="-516249338#2" to="37058508#5" />
    <trip id="619" depart="619.00" from="282898471#1" to="259925460" />
    <trip id="621" depart="621.00" from="282898471#2" to="37058508#6" />
    <trip id="624" depart="624.00" from="837035247#0" to="677154855#4" />
    <trip id="625" depart="625.00" from="50733424#2" to="37058508#8" />
    <trip id="627" depart="627.00" from="905801984" to="37058508#6" />
    <trip id="628" depart="628.00" from="837035245#2" to="677154863" />
    <trip id="629" depart="629.00" from="282898471#3" to="37061715" />
    <trip id="632" depart="632.00" from="282898475#2" to="694347708#4" />
    <trip id="634" depart="634.00" from="245718032#5" to="37058508#4" />
    <trip id="637" depart="637.00" from="259925460" to="37058508#1" />
    <trip id="638" depart="638.00" from="282898475#2" to="677154855#2" />
    <trip id="639" depart="639.00" from="837035244#1" to="677154860#1" />
    <trip id="640" depart="640.00" from="-516249338#2" to="-677154860#1" />
    <trip id="641" depart="641.00" from="679721377#1" to="259925480" />
    <trip id="642" depart="642.00" from="694347708#4" to="679721375" />
    <trip id="643" depart="643.00" from="905801985" to="905801983#1" />
    <trip id="644" depart="644.00" from="282898475#1" to="677154855#0" />
    <trip id="647" depart="647.00" from="32348142#1" to="677154855#1" />
    <trip id="649" depart="649.00" from="298030653#2" to="837035245#1" />
    <trip id="650" depart="650.00" from="837035245#3" to="679721377#1" />
    <trip id="652" depart="652.00" from="679721377#2" to="515712906#4" />
    <trip id="654" depart="654.00" from="298030653#0" to="298030653#1" />
    <trip id="656" depart="656.00" from="970446127#1" to="48570408" />
    <trip id="657" depart="657.00" from="245718032#2" to="1358702055#2" />
    <trip id="660" depart="660.00" from="837035245#6" to="905801983#2" />
    <trip id="662" depart="662.00" from="751604168" to="1358702055#1" />
    <trip id="663" depart="663.00" from="298030653#2" to="179646927#0" />
    <trip id="664" depart="664.00" from="837035245#5" to="837035244#0" />
    <trip id="665" depart="665.00" from="837035245#2" to="179646927#1" />
    <trip id="666" depart="666.00" from="37058508#4" to="37058508#10" />
    <trip id="669" depart="669.00" from="701733847#1" to="37058508#6" />
    <trip id="671" depart="671.00" from="837035245#2" to="37058508#9" />
    <trip id="672" depart="672.00" from="837035245#6" to="298030653#2" />
    <trip id="673" depart="673.00" from="970446127#1" to="970446127#6" />
    <trip id="675" depart="675.00" from="32348142#0" to="515712906#4" />
    <trip id="677" depart="677.00" from="837035245#1" to="1358702055#2" />
    <trip id="678" depart="678.00" from="245718032#5" to="677154860#1" />
    <trip id="679" depart="679.00" from="905801983#0" to="516249338#2" />
    <trip id="681" depart="681.00" from="837035247#0" to="259925480" />
    <trip id="683" depart="683.00" from="905801985" to="1358702055#3" />
    <trip id="685" depart="685.00" from="245718032#1" to="37058508#6" />
    <trip id="686" depart="686.00" from="283102541#0" to="-283102541#0" />
    <trip id="688" depart="688.00" from="245718032#3" to="edge2" />
    <trip id="689" depart="689.00" from="298030653#2" to="-283102541#0" />
    <trip id="690" depart="690.00" from="970147017" to="837035245#7" />
    <trip id="693" depart="693.00" from="837035245#5" to="694347708#1" />
    <trip id="697" depart="697.00" from="837035245#6" to="516249338#1" />
    <trip id="698" depart="698.00" from="694347708#5" to="515712906#4" />
    <trip id="703" depart="703.00" from="905801985" to="677154855#1" />
    <trip id="704" depart="704.00" from="-259925460" to="515712906#2" />
    <trip id="705" depart="705.00" from="245718032#4" to="1358702055#2" />
    <trip id="707" depart="707.00" from="245718032#4" to="37058508#10" />
    <trip id="711" depart="711.00" from="970446127#7" to="516249338#2" />
    <trip id="712" depart="712.00" from="32348142#1" to="37058508#9" />
    <trip id="714" depart="714.00" from="245718032#6" to="-259925480" />
    <trip id="716" depart="716.00" from="694347708#5" to="677154858" />
    <trip id="720" depart="720.00" from="179646927#1" to="837035244#1" />
    <trip id="727" depart="727.00" from="515712906#0" to="970446127#7" />
    <trip id="729" depart="729.00" from="701733847#1" to="186502946#1" />
    <trip id="731" depart="731.00" from="837035248" to="282898475#2" />
    <trip id="734" depart="734.00" from="905801984" to="32348142#1" />
    <trip id="735" depart="735.00" from="970446127#5" to="48570408.161" />
    <trip id="736" depart="736.00" from="49012171" to="905801989" />
    <trip id="742" depart="742.00" from="282898471#1" to="677154855#2" />
    <trip id="744" depart="744.00" from="283102541#0" to="-50733424#2" />
    <trip id="745" depart="745.00" from="837035248" to="298030653#0" />
    <trip id="746" depart="746.00" from="edge1" to="259925460" />
    <trip id="747" depart="747.00" from="970446127#6" to="970446127#1" />
    <trip id="748" depart="748.00" from="-516249338#3" to="677154860#0" />
    <trip id="749" depart="749.00" from="298030653#0" to="837035245#2" />
    <trip id="750" depart="750.00" from="679721377#1" to="970446127#2" />
    <trip id="752" depart="752.00" from="837035244#0" to="-283102541#1" />
    <trip id="754" depart="754.00" from="298030653#0" to="32348142#1" />
    <trip id="756" depart="756.00" from="679721377#1" to="970446127#1" />
    <trip id="757" depart="757.00" from="298030653#1" to="751846091" />
    <trip id="759" depart="759.00" from="37058458" to="677154863" />
    <trip id="760" depart="760.00" from="245718032#5" to="1078908685" />
    <trip id="761" depart="761.00" from="694347708#6" to="49012171" />
    <trip id="762" depart="762.00" from="32348142#0" to="516249338#3" />
    <trip id="763" depart="763.00" from="245718032#7" to="245718032#8" />
    <trip id="767" depart="767.00" from="837035247#0" to="37058508#6" />
    <trip id="768" depart="768.00" from="905801984" to="37058508#5" />